[globalOptions]

# Set the input directory map in an absolute path. 
# - The input forcing and parameter directories and files will be relative to this.
#~ inputDir  = /scratch-shared/edwinhs-new/pcrglobwb_input/
inputDir     = /projects/0/dfguu/data/hydroworld/

# set the pcrglobwb output directory in an absolute path
#~ outputDir = /scratch-shared/edwinhs-new/output_05_min_run/
outputDir    = /scratch-shared/edwinhs/output_05_min_run_niger/

# Map of clone (must be provided in PCRaster maps)
# - Spatial resolution and coverage are based on this map:
#~ cloneMap  = others/05ArcMinCloneMaps/new_masks_from_top/clone_M40.map
#~ cloneMap  = /projects/0/dfguu/data/hydroworld/PCRGLOBWB20/input5min/routing/lddsound_05min.map
#~ cloneMap  = /home/edwinsut/github/edwinkost/PCR-GLOBWB_input_example/RhineMeuse30min/cloneMaps/
#~ cloneMap  = /projects/0/dfguu/data/hydroworld/others/RhineMeuse/RhineMeuse05min.clone.map
cloneMap     = /scratch-shared/edwinhs/niger_05min/05min/clone_niger_05min.map

# The area/landmask of interest:
# If None, area/landmask is limited for cells with ldd value. 
#~ landmask  = None
landmask     = /scratch-shared/edwinhs/niger_05min/05min/landmask_niger_05min.map

# netcdf attributes for output files:
institution  = Department of Physical Geography, Utrecht University
title        = PCR-GLOBWB 2 output (not coupled to MODFLOW)
description  = by Edwin H. Sutanudjaja (contact: e.h.sutanudjaja@uu.nl) 

startTime = 2000-01-01
endTime   = 2010-12-31
# Format: YYYY-MM-DD ; The current model runs on the daily time step.

# spinning up options:
maxSpinUpsInYears = 0
minConvForSoilSto = 0.0
minConvForGwatSto = 0.0
minConvForChanSto = 0.0
minConvForTotlSto = 0.0

[meteoOptions]

# Set the forcing temperature and precipitation files (relative to inputDir)
precipitationNC = /scratch-shared/edwinhs/pcrglobwb_input/global_30min/meteo/forcing/cru_era-interim/daily_precipitation_cru_era-interim_2000_to_2010.nc4
temperatureNC   = /scratch-shared/edwinhs/pcrglobwb_input/global_30min/meteo/forcing/cru_era-interim/daily_temperature_cru_era-interim_2000_to_2010.nc4

# Method to calculate referencePotETP (reference potential evaporation+transpiration)
# options are "Hamon" and "Input" ; If "Input", the netcdf input file must be given:
referenceETPotMethod = Input
refETPotFileNC  = /scratch-shared/edwinhs/pcrglobwb_input/global_30min/meteo/forcing/cru_era-interim/daily_referencePotET_cru_era-interim_2000_to_2010.nc4

[meteoDownscalingOptions]
# This section is for a 5 arcmin run, for downscaling meteorological forcing at 30 arcmin to 5 arcmin.  
                                                                                                                                        
downscalePrecipitation  = False                                                                                                                                   
downscaleTemperature    = True                                                                                                                                   
downscaleReferenceETPot = False                                                                                                                                   
   
# downscaling (based on the digital elevation model):                                                                                                            
# The downscaling will be performed by providing the "cellIds" (meteoDownscaleIds) of lower resolution cells.                                                    
meteoDownscaleIds = /scratch-shared/edwinhs/pcrglobwb_input/global_05min/meteo/downscaling_from_30min/uniqueIds_30min.map                                                                      
highResolutionDEM = /scratch-shared/edwinhs/pcrglobwb_input/global_05min/meteo/downscaling_from_30min/gtopo05min.map                                                                           
   
# lapse rates:                                                                                                                                                   
temperLapseRateNC = /scratch-shared/edwinhs/pcrglobwb_input/global_05min/meteo/downscaling_from_30min/temperature_slope.nc                                                                     
precipLapseRateNC = /scratch-shared/edwinhs/pcrglobwb_input/global_05min/meteo/downscaling_from_30min/precipitation_slope.nc                                                                   
                                                                                                                                                                 
# downscaling criteria (TODO: remove these):                                                                                                                     
temperatCorrelNC  = /scratch-shared/edwinhs/pcrglobwb_input/global_05min/meteo/downscaling_from_30min/temperature_correl.nc                                                                     
precipitCorrelNC  = /scratch-shared/edwinhs/pcrglobwb_input/global_05min/meteo/downscaling_from_30min/precipitation_correl.nc                                                                   
                                                                                                                                                                 
# windows length (unit: arc-degree) for smoothing/averaging forcing data (not recommended):                                                                      
smoothingWindowsLength = 0

[landSurfaceOptions]
debugWaterBalance = True

numberOfUpperSoilLayers = 2

# soil and parameters
# - they are used for all land cover types, unless they are are defined in certain land cover type options 
#   (e.g. different/various soil types for agriculture areas)  
topographyNC     = /scratch-shared/edwinhs/pcrglobwb_input/global_05min/landSurface/topography/version_2015_10_XX/topography_parameters_5_arcmin_october_2015.nc
soilPropertiesNC = /scratch-shared/edwinhs/pcrglobwb_input/global_05min/landSurface/soil/version_2013_07_03/soilProperties5ArcMin.nc


includeIrrigation = True

# netcdf time series for historical expansion of irrigation areas (unit: hectares). 
# Note: The resolution of this map must be consisten with the resolution of cellArea. 
historicalIrrigationArea = /scratch-shared/edwinhs/pcrglobwb_input/global_05min/waterUse/irrigation/irrigated_areas/version_2014_XX_XX/irrigationArea05ArcMin.nc

# a pcraster map/value defining irrigation efficiency (dimensionless) - optional
irrigationEfficiency     = /scratch-shared/edwinhs/pcrglobwb_input/global_30min/waterUse/irrigation/irrigation_efficiency/version_2014_XX_XX/efficiency.map


includeDomesticWaterDemand  = True
includeIndustryWaterDemand  = True
includeLivestockWaterDemand = True

# domestic, industrial and livestock water demand data (unit must be in m.day-1)
domesticWaterDemandFile  = /scratch-shared/edwinhs/pcrglobwb_input/global_05min/waterUse/waterDemand/version_2015_04_XX/domestic/domestic_water_demand_version_april_2015.nc
industryWaterDemandFile  = /scratch-shared/edwinhs/pcrglobwb_input/global_05min/waterUse/waterDemand/version_2015_04_XX/industry/industry_water_demand_version_april_2015.nc
livestockWaterDemandFile = /scratch-shared/edwinhs/pcrglobwb_input/global_05min/waterUse/waterDemand/version_2015_04_XX/livestock/livestock_water_demand_version_april_2015.nc


# desalination water supply (maximum/potential/capacity)
desalinationWater = /scratch-shared/edwinhs/pcrglobwb_input/global_05min/waterUse/desalination/version_2015_04_XX/desalination_water_version_april_2015.nc


# zone IDs (scale) at which allocations of groundwater and surface water (as well as desalinated water) are performed  
allocationSegmentsForGroundSurfaceWater = /scratch-shared/edwinhs/pcrglobwb_input/global_05min/waterUse/abstraction_zones/abstraction_zones_60min_05min.map

# pcraster maps defining the partitioning of groundwater - surface water source 
#
# - predefined surface water - groundwater partitioning for irrigation demand (e.g. based on Siebert, Global Map of Irrigation Areas version 5)
irrigationSurfaceWaterAbstractionFractionData           = /scratch-shared/edwinhs/pcrglobwb_input/global_05min/waterUse/source_partitioning/surface_water_fraction_for_irrigation/AEI_SWFRAC.map
# -- quality map
irrigationSurfaceWaterAbstractionFractionDataQuality    = /scratch-shared/edwinhs/pcrglobwb_input/global_05min/waterUse/source_partitioning/surface_water_fraction_for_irrigation/AEI_QUAL.map
#
# - threshold values defining the preference for surface water source for irrigation purpose
# -- treshold to maximize surface water irrigation use (cells with irrSurfaceWaterAbstractionFraction above this will prioritize irrigation surface water use)
treshold_to_maximize_irrigation_surface_water           = 0.50
# -- treshold to minimize fossil water withdrawal for irrigation (cells with irrSurfaceWaterAbstractionFraction below this have no fossil withdrawal for irrigation)
treshold_to_minimize_fossil_groundwater_irrigation      = 0.70
#
# - predefined surface water - groundwater partitioning for non irrigation demand (e.g. based on McDonald, 2014)
maximumNonIrrigationSurfaceWaterAbstractionFractionData = /scratch-shared/edwinhs/pcrglobwb_input/global_30min/waterUse/source_partitioning/surface_water_fraction_for_non_irrigation/max_city_sw_fraction.map


[forestOptions]

name = forest
debugWaterBalance = True

# snow module properties
snowModuleType      =  Simple
freezingT           =  0.0
degreeDayFactor     =  0.0025
snowWaterHoldingCap =  0.1
refreezingCoeff     =  0.05

# other paramater values
minTopWaterLayer  = 0.0
minCropKC         = 0.2

cropCoefficientNC = /scratch-shared/edwinhs/pcrglobwb_input/global_05min/landSurface/landCover/naturalTall/version_2013_07_05/cropCoefficientForest.nc
interceptCapNC    = /scratch-shared/edwinhs/pcrglobwb_input/global_05min/landSurface/landCover/naturalTall/version_2013_07_05/interceptCapInputForest.nc
coverFractionNC   = /scratch-shared/edwinhs/pcrglobwb_input/global_05min/landSurface/landCover/naturalTall/version_2013_07_05/coverFractionInputForest.nc

landCoverMapsNC   = None
# If NC file is not provided, we have to provide the following pcraster maps:
fracVegCover      = /scratch-shared/edwinhs/pcrglobwb_input/global_05min/landSurface/landCover/naturalTall/version_2013_07_05/vegf_tall.map
minSoilDepthFrac  = /scratch-shared/edwinhs/pcrglobwb_input/global_30min/landSurface/landCover/naturalTall/version_2013_07_05/minf_tall_permafrost.map
maxSoilDepthFrac  = /scratch-shared/edwinhs/pcrglobwb_input/global_30min/landSurface/landCover/naturalTall/version_2013_07_05/maxf_tall.map
rootFraction1     = /scratch-shared/edwinhs/pcrglobwb_input/global_05min/landSurface/landCover/naturalTall/version_2013_07_05/rfrac1_tall.map
rootFraction2     = /scratch-shared/edwinhs/pcrglobwb_input/global_05min/landSurface/landCover/naturalTall/version_2013_07_05/rfrac2_tall.map	
maxRootDepth      = 1.0
# Note: The maxRootDepth is not used for non irrigated land cover type. 	
#
# Parameters for the Arno's scheme:
arnoBeta = None
# If arnoBeta is defined, the soil water capacity distribution is based on this.
# If arnoBeta is NOT defined, maxSoilDepthFrac must be defined such that arnoBeta will be calculated based on maxSoilDepthFrac and minSoilDepthFrac.

# initial conditions:
interceptStorIni = /scratch-shared/edwinhs/pcrglobwb_input/global_05min/initialConditions/version_2017_08_XX/interceptStor_forest_1999-12-31.map
snowCoverSWEIni  = /scratch-shared/edwinhs/pcrglobwb_input/global_05min/initialConditions/version_2017_08_XX/snowCoverSWE_forest_1999-12-31.map
snowFreeWaterIni = /scratch-shared/edwinhs/pcrglobwb_input/global_05min/initialConditions/version_2017_08_XX/snowFreeWater_forest_1999-12-31.map
topWaterLayerIni = /scratch-shared/edwinhs/pcrglobwb_input/global_05min/initialConditions/version_2017_08_XX/topWaterLayer_forest_1999-12-31.map
storUppIni       = /scratch-shared/edwinhs/pcrglobwb_input/global_05min/initialConditions/version_2017_08_XX/storUpp_forest_1999-12-31.map
storLowIni       = /scratch-shared/edwinhs/pcrglobwb_input/global_05min/initialConditions/version_2017_08_XX/storLow_forest_1999-12-31.map
interflowIni     = /scratch-shared/edwinhs/pcrglobwb_input/global_05min/initialConditions/version_2017_08_XX/interflow_forest_1999-12-31.map

[grasslandOptions]

name = grassland
debugWaterBalance = True

# snow module properties
snowModuleType      =  Simple
freezingT           =  0.0
degreeDayFactor     =  0.0025
snowWaterHoldingCap =  0.1
refreezingCoeff     =  0.05

# other paramater values
minTopWaterLayer = 0.0
minCropKC        = 0.2

cropCoefficientNC = /scratch-shared/edwinhs/pcrglobwb_input/global_05min/landSurface/landCover/naturalShort/version_2013_07_05/cropCoefficientGrassland.nc
interceptCapNC    = /scratch-shared/edwinhs/pcrglobwb_input/global_05min/landSurface/landCover/naturalShort/version_2013_07_05/interceptCapInputGrassland.nc
coverFractionNC   = /scratch-shared/edwinhs/pcrglobwb_input/global_05min/landSurface/landCover/naturalShort/version_2013_07_05/coverFractionInputGrassland.nc

landCoverMapsNC   = None
# If NC file is not provided, we have to provide the following values:
fracVegCover      = /scratch-shared/edwinhs/pcrglobwb_input/global_05min/landSurface/landCover/naturalShort/version_2013_07_05/vegf_short.map
minSoilDepthFrac  = /scratch-shared/edwinhs/pcrglobwb_input/global_30min/landSurface/landCover/naturalShort/version_2013_07_05/minf_short_permafrost.map
maxSoilDepthFrac  = /scratch-shared/edwinhs/pcrglobwb_input/global_30min/landSurface/landCover/naturalShort/version_2013_07_05/maxf_short.map
rootFraction1     = /scratch-shared/edwinhs/pcrglobwb_input/global_05min/landSurface/landCover/naturalShort/version_2013_07_05/rfrac1_short.map
rootFraction2     = /scratch-shared/edwinhs/pcrglobwb_input/global_05min/landSurface/landCover/naturalShort/version_2013_07_05/rfrac2_short.map	
maxRootDepth      = 0.5
# Note: The maxRootDepth is not used for non irrigated land cover type. 	
#
# Parameters for the Arno's scheme:
arnoBeta = None
# If arnoBeta is defined, the soil water capacity distribution is based on this.
# If arnoBeta is NOT defined, maxSoilDepthFrac must be defined such that arnoBeta will be calculated based on maxSoilDepthFrac and minSoilDepthFrac.

# initial conditions:
interceptStorIni = /scratch-shared/edwinhs/pcrglobwb_input/global_05min/initialConditions/version_2017_08_XX/interceptStor_grassland_1999-12-31.map
snowCoverSWEIni  = /scratch-shared/edwinhs/pcrglobwb_input/global_05min/initialConditions/version_2017_08_XX/snowCoverSWE_grassland_1999-12-31.map
snowFreeWaterIni = /scratch-shared/edwinhs/pcrglobwb_input/global_05min/initialConditions/version_2017_08_XX/snowFreeWater_grassland_1999-12-31.map
topWaterLayerIni = /scratch-shared/edwinhs/pcrglobwb_input/global_05min/initialConditions/version_2017_08_XX/topWaterLayer_grassland_1999-12-31.map
storUppIni       = /scratch-shared/edwinhs/pcrglobwb_input/global_05min/initialConditions/version_2017_08_XX/storUpp_grassland_1999-12-31.map
storLowIni       = /scratch-shared/edwinhs/pcrglobwb_input/global_05min/initialConditions/version_2017_08_XX/storLow_grassland_1999-12-31.map
interflowIni     = /scratch-shared/edwinhs/pcrglobwb_input/global_05min/initialConditions/version_2017_08_XX/interflow_grassland_1999-12-31.map

[irrPaddyOptions]

name = irrPaddy
debugWaterBalance = True

# snow module properties
snowModuleType      =  Simple
freezingT           =  0.0
degreeDayFactor     =  0.0025
snowWaterHoldingCap =  0.1
refreezingCoeff     =  0.05
#
landCoverMapsNC  = None
# If NC file is not provided, we have to provide the following values:
fracVegCover     = /scratch-shared/edwinhs/pcrglobwb_input/global_05min/landSurface/landCover/irrPaddy/version_2013_07_05/fractionPaddy.map
minSoilDepthFrac = /scratch-shared/edwinhs/pcrglobwb_input/global_30min/landSurface/landCover/irrPaddy/version_2013_07_05/minf_paddy_permafrost.map
maxSoilDepthFrac = /scratch-shared/edwinhs/pcrglobwb_input/global_30min/landSurface/landCover/irrPaddy/version_2013_07_05/maxf_paddy.map
rootFraction1    = /scratch-shared/edwinhs/pcrglobwb_input/global_30min/landSurface/landCover/irrPaddy/version_2013_07_05/rfrac1_paddy.map
rootFraction2    = /scratch-shared/edwinhs/pcrglobwb_input/global_30min/landSurface/landCover/irrPaddy/version_2013_07_05/rfrac2_paddy.map
maxRootDepth     = 0.5
#
# Parameters for the Arno's scheme:
arnoBeta = None
# If arnoBeta is defined, the soil water capacity distribution is based on this.
# If arnoBeta is NOT defined, maxSoilDepthFrac must be defined such that arnoBeta will be calculated based on maxSoilDepthFrac and minSoilDepthFrac.
#
# other paramater values
minTopWaterLayer = 0.05
minCropKC        = 0.2
cropDeplFactor   = 0.2
minInterceptCap  = 0.0002

cropCoefficientNC = /scratch-shared/edwinhs/pcrglobwb_input/global_30min/landSurface/landCover/irrPaddy/version_2013_07_05/Global_CropCoefficientKc-IrrPaddy_30min.nc

# initial conditions:
interceptStorIni = /scratch-shared/edwinhs/pcrglobwb_input/global_05min/initialConditions/version_2017_08_XX/interceptStor_irrPaddy_1999-12-31.map
snowCoverSWEIni  = /scratch-shared/edwinhs/pcrglobwb_input/global_05min/initialConditions/version_2017_08_XX/snowCoverSWE_irrPaddy_1999-12-31.map
snowFreeWaterIni = /scratch-shared/edwinhs/pcrglobwb_input/global_05min/initialConditions/version_2017_08_XX/snowFreeWater_irrPaddy_1999-12-31.map
topWaterLayerIni = /scratch-shared/edwinhs/pcrglobwb_input/global_05min/initialConditions/version_2017_08_XX/topWaterLayer_irrPaddy_1999-12-31.map
storUppIni       = /scratch-shared/edwinhs/pcrglobwb_input/global_05min/initialConditions/version_2017_08_XX/storUpp_irrPaddy_1999-12-31.map
storLowIni       = /scratch-shared/edwinhs/pcrglobwb_input/global_05min/initialConditions/version_2017_08_XX/storLow_irrPaddy_1999-12-31.map
interflowIni     = /scratch-shared/edwinhs/pcrglobwb_input/global_05min/initialConditions/version_2017_08_XX/interflow_irrPaddy_1999-12-31.map

[irrNonPaddyOptions]

name = irrNonPaddy
debugWaterBalance = True

# snow module properties
snowModuleType      =  Simple
freezingT           =  0.0
degreeDayFactor     =  0.0025
snowWaterHoldingCap =  0.1
refreezingCoeff     =  0.05
#
landCoverMapsNC  = None
# If NC file is not provided, we have to provide the following values:
fracVegCover     = /scratch-shared/edwinhs/pcrglobwb_input/global_05min/landSurface/landCover/irrNonPaddy/version_2013_07_05/fractionNonPaddy.map
minSoilDepthFrac = /scratch-shared/edwinhs/pcrglobwb_input/global_30min/landSurface/landCover/irrNonPaddy/version_2013_07_05/minf_nonpaddy_permafrost.map
maxSoilDepthFrac = /scratch-shared/edwinhs/pcrglobwb_input/global_30min/landSurface/landCover/irrNonPaddy/version_2013_07_05/maxf_nonpaddy.map
rootFraction1    = /scratch-shared/edwinhs/pcrglobwb_input/global_30min/landSurface/landCover/irrNonPaddy/version_2013_07_05/rfrac1_nonpaddy.map
rootFraction2    = /scratch-shared/edwinhs/pcrglobwb_input/global_30min/landSurface/landCover/irrNonPaddy/version_2013_07_05/rfrac2_nonpaddy.map
maxRootDepth     = 1.0
#
# Parameters for the Arno's scheme:
arnoBeta = None
# If arnoBeta is defined, the soil water capacity distribution is based on this.
# If arnoBeta is NOT defined, maxSoilDepthFrac must be defined such that arnoBeta will be calculated based on maxSoilDepthFrac and minSoilDepthFrac.
#
# other paramater values
minTopWaterLayer = 0.0
minCropKC        = 0.2
cropDeplFactor   = 0.5
minInterceptCap  = 0.0002

cropCoefficientNC = /scratch-shared/edwinhs/pcrglobwb_input/global_30min/landSurface/landCover/irrNonPaddy/version_2013_07_05/Global_CropCoefficientKc-IrrNonPaddy_30min.nc

# initial conditions:
interceptStorIni = /scratch-shared/edwinhs/pcrglobwb_input/global_05min/initialConditions/version_2017_08_XX/interceptStor_irrNonPaddy_1999-12-31.map
snowCoverSWEIni  = /scratch-shared/edwinhs/pcrglobwb_input/global_05min/initialConditions/version_2017_08_XX/snowCoverSWE_irrNonPaddy_1999-12-31.map
snowFreeWaterIni = /scratch-shared/edwinhs/pcrglobwb_input/global_05min/initialConditions/version_2017_08_XX/snowFreeWater_irrNonPaddy_1999-12-31.map
topWaterLayerIni = /scratch-shared/edwinhs/pcrglobwb_input/global_05min/initialConditions/version_2017_08_XX/topWaterLayer_irrNonPaddy_1999-12-31.map
storUppIni       = /scratch-shared/edwinhs/pcrglobwb_input/global_05min/initialConditions/version_2017_08_XX/storUpp_irrNonPaddy_1999-12-31.map
storLowIni       = /scratch-shared/edwinhs/pcrglobwb_input/global_05min/initialConditions/version_2017_08_XX/storLow_irrNonPaddy_1999-12-31.map
interflowIni     = /scratch-shared/edwinhs/pcrglobwb_input/global_05min/initialConditions/version_2017_08_XX/interflow_irrNonPaddy_1999-12-31.map

[groundwaterOptions]

debugWaterBalance = True

groundwaterPropertiesNC = /scratch-shared/edwinhs/pcrglobwb_input/global_05min/groundwater/properties/version_2013_10_29/groundwaterProperties5ArcMin.nc
# The file will containspecificYield (m3.m-3), kSatAquifer, recessionCoeff (day-1)
#
# - minimum value for groundwater recession coefficient (day-1) 
minRecessionCoeff = 1.0e-4

# some options for constraining groundwater abstraction
limitFossilGroundWaterAbstraction      = True
estimateOfRenewableGroundwaterCapacity = 0.0
estimateOfTotalGroundwaterThickness    = /scratch-shared/edwinhs/pcrglobwb_input/global_05min/groundwater/aquifer_thickness_estimate/version_2014_09_XX/thickness_05min.map
# minimum and maximum total groundwater thickness 
minimumTotalGroundwaterThickness       = 100.
maximumTotalGroundwaterThickness       = None

# annual pumping capacity for each region (unit: billion cubic meter per year), should be given in a netcdf file
pumpingCapacityNC = /scratch-shared/edwinhs/pcrglobwb_input/global_30min/waterUse/groundwater_pumping_capacity/version_2014_11_XX/regional_abstraction_limit.nc

# initial conditions:
storGroundwaterIni                        = /scratch-shared/edwinhs/pcrglobwb_input/global_05min/initialConditions/version_2017_08_XX/storGroundwater_1999-12-31.map
storGroundwaterFossilIni                  = /scratch-shared/edwinhs/pcrglobwb_input/global_05min/initialConditions/version_2017_08_XX/storGroundwaterFossil_1999-12-31.map
#
# additional initial conditions for pumping behaviors
avgNonFossilGroundwaterAllocationLongIni  = /scratch-shared/edwinhs/pcrglobwb_input/global_05min/initialConditions/version_2017_08_XX/avgNonFossilGroundwaterAllocationLong_1999-12-31.map
avgNonFossilGroundwaterAllocationShortIni = /scratch-shared/edwinhs/pcrglobwb_input/global_05min/initialConditions/version_2017_08_XX/avgNonFossilGroundwaterAllocationShort_1999-12-31.map
avgTotalGroundwaterAbstractionIni         = /scratch-shared/edwinhs/pcrglobwb_input/global_05min/initialConditions/version_2017_08_XX/avgTotalGroundwaterAbstraction_1999-12-31.map
avgTotalGroundwaterAllocationLongIni      = /scratch-shared/edwinhs/pcrglobwb_input/global_05min/initialConditions/version_2017_08_XX/avgTotalGroundwaterAllocationLong_1999-12-31.map
avgTotalGroundwaterAllocationShortIni     = /scratch-shared/edwinhs/pcrglobwb_input/global_05min/initialConditions/version_2017_08_XX/avgTotalGroundwaterAllocationShort_1999-12-31.map
#
# additional initial conditions (needed only for MODFLOW run) 
relativeGroundwaterHeadIni                = /scratch-shared/edwinhs/pcrglobwb_input/global_05min/initialConditions/version_2017_08_XX/relativeGroundwaterHead_1999-12-31.map
baseflowIni                               = /scratch-shared/edwinhs/pcrglobwb_input/global_05min/initialConditions/version_2017_08_XX/baseflow_1999-12-31.map

# zonal IDs (scale) at which zonal allocation of groundwater is performed  
allocationSegmentsForGroundwater = /scratch-shared/edwinhs/pcrglobwb_input/global_05min/waterUse/abstraction_zones/abstraction_zones_30min_05min.map

# assumption for the minimum transmissivity value (unit: m2/day) that can be extracted (via capillary rise and/or groundwater abstraction) - optional
minTransimissivityForProductiveAquifer    = 50.0
# - if None, abstraction and/or capillary rise can always occur everywhere and unlimited
# - TODO: Shall we also defined the minimum value for storage coefficient?

[routingOptions]

debugWaterBalance = True

# drainage direction map
lddMap      = /scratch-shared/edwinhs/pcrglobwb_input/global_05min/routing/ldd_and_cell_area/version_2013_09_15/lddsound_05min.map

# cell area (unit: m2)
cellAreaMap = /scratch-shared/edwinhs/pcrglobwb_input/global_05min/routing/ldd_and_cell_area/version_2013_09_15/cellsize05min.correct.map

# routing method:
routingMethod = accuTravelTime

# manning coefficient
manningsN   = 0.04

# Option for flood plain simulation
dynamicFloodPlain = True

# manning coefficient for floodplain
floodplainManningsN = 0.07


# channel gradient
gradient             = /scratch-shared/edwinhs/pcrglobwb_input/global_05min/routing/channel_properties/version_2015_10_XX/channel_gradient.map

# constant channel depth 
constantChannelDepth = /scratch-shared/edwinhs/pcrglobwb_input/global_05min/routing/channel_properties/version_2015_10_XX/bankfull_depth.map

# constant channel width (optional)
constantChannelWidth = /scratch-shared/edwinhs/pcrglobwb_input/global_05min/routing/channel_properties/version_2015_10_XX/bankfull_width.map

# minimum channel width (optional)
minimumChannelWidth  = /scratch-shared/edwinhs/pcrglobwb_input/global_05min/routing/channel_properties/version_2015_10_XX/bankfull_width.map

# channel properties for flooding
bankfullCapacity     = None
# - If None, it will be estimated from (bankfull) channel depth (m) and width (m) 


# files for relative elevation (above minimum dem) 
relativeElevationFiles  = /scratch-shared/edwinhs/pcrglobwb_input/global_05min/routing/channel_properties/version_2015_10_XX//dzRel%04d.map
relativeElevationLevels = 0.0, 0.01, 0.05, 0.10, 0.20, 0.30, 0.40, 0.50, 0.60, 0.70, 0.80, 0.90, 1.00


# composite crop factors for WaterBodies: 
cropCoefficientWaterNC = /scratch-shared/edwinhs/pcrglobwb_input/global_30min/routing/kc_surface_water/version_2013_07_05/cropCoefficientForOpenWater.nc
minCropWaterKC         = 1.00


# lake and reservoir parameters
waterBodyInputNC       = /scratch-shared/edwinhs/pcrglobwb_input/global_05min/routing/surface_water_bodies/version_2013_09_15/waterBodies5ArcMin.nc
onlyNaturalWaterBodies = False


# initial conditions:
waterBodyStorageIni            = /scratch-shared/edwinhs/pcrglobwb_input/global_05min/initialConditions/version_2017_08_XX/waterBodyStorage_1999-12-31.map
channelStorageIni              = /scratch-shared/edwinhs/pcrglobwb_input/global_05min/initialConditions/version_2017_08_XX/channelStorage_1999-12-31.map
readAvlChannelStorageIni       = /scratch-shared/edwinhs/pcrglobwb_input/global_05min/initialConditions/version_2017_08_XX/readAvlChannelStorage_1999-12-31.map
avgDischargeLongIni            = /scratch-shared/edwinhs/pcrglobwb_input/global_05min/initialConditions/version_2017_08_XX/avgDischargeLong_1999-12-31.map
avgDischargeShortIni           = /scratch-shared/edwinhs/pcrglobwb_input/global_05min/initialConditions/version_2017_08_XX/avgDischargeShort_1999-12-31.map
m2tDischargeLongIni            = /scratch-shared/edwinhs/pcrglobwb_input/global_05min/initialConditions/version_2017_08_XX/m2tDischargeLong_1999-12-31.map
avgBaseflowLongIni             = /scratch-shared/edwinhs/pcrglobwb_input/global_05min/initialConditions/version_2017_08_XX/avgBaseflowLong_1999-12-31.map
riverbedExchangeIni            = /scratch-shared/edwinhs/pcrglobwb_input/global_05min/initialConditions/version_2017_08_XX/riverbedExchange_1999-12-31.map
#
# initial condition of sub-time step discharge (needed for estimating number of time steps in kinematic wave methods)
subDischargeIni                = /scratch-shared/edwinhs/pcrglobwb_input/global_05min/initialConditions/version_2017_08_XX/subDischarge_1999-12-31.map
#
avgLakeReservoirInflowShortIni = /scratch-shared/edwinhs/pcrglobwb_input/global_05min/initialConditions/version_2017_08_XX/avgLakeReservoirInflowShort_1999-12-31.map
avgLakeReservoirOutflowLongIni = /scratch-shared/edwinhs/pcrglobwb_input/global_05min/initialConditions/version_2017_08_XX/avgLakeReservoirOutflowLong_1999-12-31.map
#
# number of days (timesteps) that have been performed for spinning up initial conditions in the routing module (i.e. channelStorageIni, avgDischargeLongIni, avgDischargeShortIni, etc.)
timestepsToAvgDischargeIni     = /scratch-shared/edwinhs/pcrglobwb_input/global_05min/initialConditions/version_2017_08_XX/timestepsToAvgDischarge_1999-12-31.map
# Note that: 
# - maximum number of days (timesteps) to calculate long term average flow values (default: 5 years = 5 * 365 days = 1825)
# - maximum number of days (timesteps) to calculate short term average values (default: 1 month = 1 * 30 days = 30)


[reportingOptions]

# output files that will be written in the disk in netcdf files:
# - daily resolution
outDailyTotNC = None
# - monthly resolution
outMonthTotNC = totalEvaporation,waterBodyActEvaporation,actualET,irrPaddyWaterWithdrawal,irrNonPaddyWaterWithdrawal,domesticWaterWithdrawal,industryWaterWithdrawal,livestockWaterWithdrawal,precipitation,gwRecharge,runoff,totalRunoff,baseflow,directRunoff,interflowTotal,totalGroundwaterAbstraction,desalinationAbstraction,surfaceWaterAbstraction,nonFossilGroundwaterAbstraction,fossilGroundwaterAbstraction,irrGrossDemand,nonIrrGrossDemand,totalGrossDemand,nonIrrWaterConsumption,nonIrrReturnFlow
outMonthAvgNC = discharge,temperature,dynamicFracWat,surfaceWaterStorage,interceptStor,snowFreeWater,snowCoverSWE,topWaterLayer,storUppTotal,storLowTotal,storGroundwater,storGroundwaterFossil,totalActiveStorageThickness,totalWaterStorageThickness,satDegUpp,satDegLow,channelStorage,waterBodyStorage
outMonthEndNC = storGroundwater,storGroundwaterFossil,waterBodyStorage,channelStorage,totalWaterStorageThickness,totalActiveStorageThickness
# - annual resolution